Version 4
SHEET 1 1432 1488
WIRE 48 -112 -48 -112
WIRE 320 -112 48 -112
WIRE -48 -32 -48 -112
WIRE 48 -32 48 -112
WIRE 240 -32 224 -32
WIRE 240 -16 240 -32
WIRE 144 32 144 -32
WIRE 288 32 144 32
WIRE 512 32 512 -32
WIRE 144 48 144 32
WIRE 960 48 928 48
WIRE 1136 48 1088 48
WIRE 960 64 960 48
WIRE 1136 64 1136 48
WIRE -448 96 -736 96
WIRE -192 96 -448 96
WIRE -48 96 -48 32
WIRE -48 96 -192 96
WIRE 48 96 48 48
WIRE 48 96 -48 96
WIRE 112 96 48 96
WIRE 320 128 320 -112
WIRE 320 128 256 128
WIRE 352 128 320 128
WIRE 512 128 512 112
WIRE 512 128 352 128
WIRE 608 128 512 128
WIRE 848 128 848 48
WIRE 848 128 800 128
WIRE -736 144 -736 96
WIRE -736 144 -800 144
WIRE -672 144 -736 144
WIRE -448 144 -448 96
WIRE -448 144 -528 144
WIRE -400 144 -448 144
WIRE 112 160 80 160
WIRE 1008 160 1008 48
WIRE 1008 160 800 160
WIRE 608 176 576 176
WIRE 80 192 80 160
WIRE 848 192 800 192
WIRE -192 208 -192 96
WIRE 288 208 288 32
WIRE 288 208 192 208
WIRE -736 224 -800 224
WIRE -672 224 -672 208
WIRE -672 224 -736 224
WIRE -464 224 -528 224
WIRE -400 224 -400 208
WIRE -400 224 -464 224
WIRE -736 288 -736 224
WIRE -736 288 -800 288
WIRE -624 288 -736 288
WIRE -464 288 -464 224
WIRE 576 288 576 176
WIRE 688 288 576 288
WIRE 848 288 848 192
WIRE 848 288 768 288
WIRE 864 288 848 288
WIRE 960 288 944 288
WIRE 1088 288 960 288
WIRE 1296 288 1296 256
WIRE 1296 288 1184 288
WIRE 1344 288 1296 288
WIRE 144 304 144 208
WIRE 240 304 224 304
WIRE 240 320 240 304
WIRE 1088 320 1024 320
WIRE 1264 320 1184 320
WIRE 1344 320 1344 288
WIRE -624 368 -624 352
WIRE -624 368 -800 368
WIRE -464 368 -464 352
WIRE -464 368 -624 368
WIRE -256 368 -464 368
WIRE -192 368 -192 272
WIRE -192 368 -256 368
WIRE 1024 368 1024 320
WIRE 1264 368 1264 320
WIRE -256 416 -256 368
WIRE 960 416 960 288
WIRE 352 448 352 128
FLAG 240 -16 0
FLAG 240 320 0
FLAG 80 192 0
FLAG 960 64 0
FLAG 1136 64 0
FLAG 576 368 0
FLAG -256 416 0
FLAG 1024 368 0
FLAG 1264 368 0
FLAG 1344 400 0
FLAG 1296 256 tline_out
IOPIN 1296 256 Out
FLAG 960 416 buf2_out
IOPIN 960 416 Out
FLAG 352 448 buf1_out
IOPIN 352 448 Out
FLAG 512 -32 0
SYMBOL OpAmps\\LTC6268-10 144 128 R0
SYMATTR InstName U1
SYMBOL voltage 128 -32 R270
WINDOW 0 32 56 VTop 2
WINDOW 3 -32 56 VBottom 2
SYMATTR InstName V1
SYMATTR Value 2.5
SYMBOL voltage 128 304 R270
WINDOW 0 32 56 VTop 2
WINDOW 3 -32 56 VBottom 2
SYMATTR InstName V2
SYMATTR Value -2.5
SYMBOL AD8001AR 704 160 R0
SYMATTR InstName U2
SYMBOL voltage 832 48 R270
WINDOW 0 32 56 VTop 2
WINDOW 3 -32 56 VBottom 2
SYMATTR InstName V3
SYMATTR Value 6
SYMBOL voltage 992 48 R270
WINDOW 0 32 56 VTop 2
WINDOW 3 -32 56 VBottom 2
SYMATTR InstName V4
SYMATTR Value -6
SYMBOL res 960 272 R90
WINDOW 0 0 56 VBottom 2
WINDOW 3 32 56 VTop 2
SYMATTR InstName R1
SYMATTR Value 50
SYMBOL res 560 272 R0
SYMATTR InstName R3
SYMATTR Value 576
SYMBOL res 672 304 R270
WINDOW 0 32 56 VTop 2
WINDOW 3 0 56 VBottom 2
SYMATTR InstName R4
SYMATTR Value 576
SYMBOL res 64 64 R180
WINDOW 0 36 76 Left 2
WINDOW 3 36 40 Left 2
SYMATTR InstName R5
SYMATTR Value 200
SYMBOL cap -32 -32 M0
SYMATTR InstName C2
SYMATTR Value 37p
SYMBOL cap -640 288 R0
SYMATTR InstName Cd1
SYMATTR Value 120f
SYMBOL res -816 128 R0
SYMATTR InstName Rq1
SYMATTR Value 475k
SYMBOL current -800 368 R180
WINDOW 0 24 80 Left 2
WINDOW 3 24 0 Left 2
WINDOW 123 0 0 Left 0
WINDOW 39 0 0 Left 0
SYMATTR InstName microcell1
SYMATTR Value PULSE(0 11000u 1u 30n 30n 40n 1u 2000)
SYMBOL cap -688 144 R0
SYMATTR InstName C3
SYMATTR Value 60f
SYMBOL cap -480 288 R0
SYMATTR InstName Cd2
SYMATTR Value 2.28n
SYMBOL res -544 128 R0
SYMATTR InstName Rq2
SYMATTR Value 25
SYMBOL cap -416 144 R0
SYMATTR InstName C4
SYMATTR Value 1.14n
SYMBOL cap -208 208 R0
SYMATTR InstName C5
SYMATTR Value 30p
SYMBOL tline 1136 304 R0
SYMATTR InstName T1
SYMBOL res 1328 304 R0
SYMATTR InstName R6
SYMATTR Value 50
SYMBOL res 528 16 M0
SYMATTR InstName R2
SYMATTR Value 10k
TEXT -88 408 Left 2 !.tran 0 100u 0 .05n
