Version 4
SHEET 1 880 680
WIRE -1920 -1056 -2032 -1056
WIRE -1776 -1056 -1840 -1056
WIRE -1168 -976 -1312 -976
WIRE -976 -976 -1088 -976
WIRE -2032 -944 -2032 -1056
WIRE -1904 -944 -2032 -944
WIRE -1776 -944 -1776 -1056
WIRE -1776 -944 -1840 -944
WIRE -2448 -880 -2448 -912
WIRE -1536 -832 -1712 -832
WIRE -1312 -832 -1312 -976
WIRE -1312 -832 -1456 -832
WIRE -1248 -832 -1312 -832
WIRE -976 -800 -976 -976
WIRE -976 -800 -1104 -800
WIRE -928 -800 -976 -800
WIRE -2032 -768 -2032 -944
WIRE -2032 -768 -2144 -768
WIRE -1984 -768 -2032 -768
WIRE -1248 -768 -1312 -768
WIRE -1776 -736 -1776 -944
WIRE -1776 -736 -1840 -736
WIRE -1712 -736 -1712 -832
WIRE -1712 -736 -1776 -736
WIRE -1984 -704 -2048 -704
WIRE -2928 -688 -3216 -688
WIRE -2672 -688 -2928 -688
WIRE -2544 -688 -2672 -688
WIRE -2304 -688 -2464 -688
WIRE -2144 -688 -2144 -768
WIRE -2144 -688 -2224 -688
WIRE -3216 -640 -3216 -688
WIRE -3216 -640 -3280 -640
WIRE -3152 -640 -3216 -640
WIRE -2928 -640 -2928 -688
WIRE -2928 -640 -3008 -640
WIRE -2880 -640 -2928 -640
WIRE -1712 -624 -1712 -736
WIRE -1648 -624 -1712 -624
WIRE -1520 -624 -1568 -624
WIRE -1312 -624 -1312 -768
WIRE -1312 -624 -1376 -624
WIRE -2048 -608 -2048 -704
WIRE -2672 -576 -2672 -688
WIRE -3216 -560 -3280 -560
WIRE -3152 -560 -3152 -576
WIRE -3152 -560 -3216 -560
WIRE -2944 -560 -3008 -560
WIRE -2880 -560 -2880 -576
WIRE -2880 -560 -2944 -560
WIRE -1312 -512 -1312 -544
WIRE -3216 -496 -3216 -560
WIRE -3216 -496 -3280 -496
WIRE -3104 -496 -3216 -496
WIRE -2944 -496 -2944 -560
WIRE -1952 -480 -1952 -656
WIRE -1952 -432 -1952 -480
WIRE -3104 -416 -3104 -432
WIRE -3104 -416 -3280 -416
WIRE -2944 -416 -2944 -432
WIRE -2944 -416 -3104 -416
WIRE -2672 -416 -2672 -512
WIRE -2672 -416 -2944 -416
WIRE -1952 -304 -1952 -352
WIRE -2672 -256 -2672 -416
FLAG -2672 -176 0
FLAG -2048 -608 0
FLAG -1952 -304 0
FLAG -1952 -480 vn
IOPIN -1952 -480 BiDir
FLAG -1904 -656 vp
IOPIN -1904 -656 BiDir
FLAG -2448 -992 0
FLAG -2448 -880 vp
IOPIN -2448 -880 BiDir
FLAG -1952 -816 vp
IOPIN -1952 -816 BiDir
FLAG -1312 -512 0
FLAG -1168 -720 vp
IOPIN -1168 -720 BiDir
FLAG -1216 -880 vp
IOPIN -1216 -880 BiDir
FLAG -1216 -720 vn
IOPIN -1216 -720 BiDir
FLAG -928 -800 diffd
IOPIN -928 -800 Out
FLAG -1712 -736 amplified
IOPIN -1712 -736 Out
SYMBOL cap -3120 -496 R0
SYMATTR InstName Cd
SYMATTR Value 120f
SYMBOL res -3296 -656 R0
SYMATTR InstName Rq
SYMATTR Value 475k
SYMBOL current -3280 -416 R180
WINDOW 0 24 80 Left 2
WINDOW 3 24 0 Left 2
WINDOW 123 0 0 Left 0
WINDOW 39 0 0 Left 0
SYMATTR InstName microcell
SYMATTR Value PULSE(0 1000u 1u 1n 1n 4n 2u 10000)
SYMBOL cap -3168 -640 R0
SYMATTR InstName C1
SYMATTR Value 60f
SYMBOL cap -2960 -496 R0
SYMATTR InstName Cd1
SYMATTR Value 2.28n
SYMBOL res -3024 -656 R0
SYMATTR InstName Rq1
SYMATTR Value 25
SYMBOL cap -2896 -640 R0
SYMATTR InstName C3
SYMATTR Value 1.14n
SYMBOL cap -2688 -576 R0
SYMATTR InstName C4
SYMATTR Value 30p
SYMBOL voltage -2672 -272 R0
WINDOW 123 0 0 Left 0
WINDOW 39 0 0 Left 0
SYMATTR InstName V1
SYMATTR Value 28
SYMBOL voltage -1952 -336 R180
WINDOW 0 24 96 Left 2
WINDOW 3 24 16 Left 2
SYMATTR InstName V4
SYMATTR Value 2.5
SYMBOL voltage -2448 -896 R180
WINDOW 0 24 96 Left 2
WINDOW 3 24 16 Left 2
SYMATTR InstName V5
SYMATTR Value 2.5
SYMBOL res -1824 -1072 R90
WINDOW 0 0 56 VBottom 2
WINDOW 3 32 56 VTop 2
SYMATTR InstName R3
SYMATTR Value 20
SYMBOL 10ns-delay -1456 -624 R0
SYMATTR InstName X1
SYMBOL res -1184 -992 M90
WINDOW 0 0 56 VBottom 2
WINDOW 3 32 56 VTop 2
SYMATTR InstName R4
SYMATTR Value 500
SYMBOL res -1328 -640 R0
SYMATTR InstName R6
SYMATTR Value 500
SYMBOL res -1552 -848 M90
WINDOW 0 0 56 VBottom 2
WINDOW 3 32 56 VTop 2
SYMATTR InstName R2
SYMATTR Value 25
SYMBOL res -1664 -640 M90
WINDOW 0 0 56 VBottom 2
WINDOW 3 32 56 VTop 2
SYMATTR InstName R5
SYMATTR Value 25
SYMBOL voltage -2320 -688 R270
WINDOW 0 -32 56 VBottom 2
WINDOW 3 32 56 VTop 2
WINDOW 123 0 0 Left 0
WINDOW 39 0 0 Left 0
SYMATTR InstName V2
SYMATTR Value -2
SYMBOL bv -2448 -688 R90
WINDOW 0 -32 56 VBottom 2
WINDOW 3 32 56 VTop 2
SYMATTR InstName B1
SYMATTR Value V=white(time*1e9) / 1e3
SYMBOL cap -1840 -960 R90
WINDOW 0 0 32 VBottom 2
WINDOW 3 32 32 VTop 2
SYMATTR InstName C2
SYMATTR Value 400p
SYMBOL OpAmps\\LTC6268-10 -1952 -736 R0
SYMATTR InstName U1
SYMBOL OpAmps\\LTC6268 -1216 -800 R0
SYMATTR InstName U2
TEXT -3136 -176 Left 2 !.tran 0 500u 0 0.1n
TEXT -2416 -760 Left 2 ;SiPM DC offset (~2V)
TEXT -2800 -112 Left 2 ;SiPM bias voltage (~28 V)
